LTspice 24.0.12 for Windows
Circuit: * C:\Users\quiqu\Documents\repos\esp-map\hardware\esp32-lora-multi-gateway\sim\psu.asc
Start Time: Mon Nov 25 10:46:04 2024
Warning: Multiple definitions of model "2scr375p" Type: BJT
Warning: Multiple definitions of model "bc857b" Type: BJT
Warning: Multiple definitions of model "bc847c" Type: BJT
Warning: Multiple definitions of model "bc847b" Type: BJT
solver = Normal
Maximum thread count: 4
tnom = 27
temp = 27
method = modified trap
Direct Newton iteration for .op point succeeded.
Total elapsed time: 0.091 seconds.

